<?xml version="1.0" encoding="UTF-8"?>
<!-- generated on 2021-01-07 22:08:22.668714 by randomTrips.py v1_7_0+0000-714814baed
  options: -n highway.net.xml -b 0 -e 10 -p 0.05 -o highway.trips.xml
-->
<routes xmlns:xsi="http://www.w3.org/2001/XMLSchema-instance" xsi:noNamespaceSchemaLocation="http://sumo.dlr.de/xsd/routes_file.xsd">
    <trip id="0" depart="0.00" from="r12" to="e1"/>
    <trip id="1" depart="0.05" from="e4" to="e3"/>
    <trip id="2" depart="0.10" from="r3" to="r2"/>
    <trip id="3" depart="0.15" from="r7" to="e11"/>
    <trip id="4" depart="0.20" from="e8" to="e1"/>
    <trip id="5" depart="0.25" from="e3" to="r1"/>
    <trip id="6" depart="0.30" from="e1" to="e2"/>
    <trip id="7" depart="0.35" from="r12" to="r10"/>
    <trip id="8" depart="0.40" from="e3" to="r11"/>
    <trip id="9" depart="0.45" from="r5" to="e1"/>
    <trip id="10" depart="0.50" from="r5" to="r2"/>
    <trip id="11" depart="0.55" from="e6" to="e12"/>
    <trip id="12" depart="0.60" from="r8" to="e6"/>
    <trip id="13" depart="0.65" from="e11" to="e11"/>
    <trip id="14" depart="0.70" from="r6" to="r11"/>
    <trip id="15" depart="0.75" from="r5" to="r3"/>
    <trip id="16" depart="0.80" from="r1" to="r9"/>
    <trip id="17" depart="0.85" from="e7" to="r10"/>
    <trip id="18" depart="0.90" from="r5" to="r11"/>
    <trip id="19" depart="0.95" from="r6" to="r10"/>
    <trip id="20" depart="1.00" from="r2" to="e10"/>
    <trip id="21" depart="1.05" from="e3" to="e4"/>
    <trip id="22" depart="1.10" from="e10" to="e3"/>
    <trip id="23" depart="1.15" from="e11" to="e4"/>
    <trip id="24" depart="1.20" from="r12" to="e6"/>
    <trip id="25" depart="1.25" from="e6" to="e3"/>
    <trip id="26" depart="1.30" from="e4" to="r8"/>
    <trip id="27" depart="1.35" from="r12" to="r11"/>
    <trip id="28" depart="1.40" from="e2" to="r3"/>
    <trip id="29" depart="1.45" from="e12" to="e7"/>
    <trip id="30" depart="1.50" from="r9" to="r12"/>
    <trip id="31" depart="1.55" from="r10" to="r2"/>
    <trip id="32" depart="1.60" from="r6" to="r4"/>
    <trip id="33" depart="1.65" from="e3" to="e1"/>
    <trip id="34" depart="1.70" from="e5" to="e4"/>
    <trip id="35" depart="1.75" from="e3" to="r8"/>
    <trip id="36" depart="1.80" from="r7" to="e5"/>
    <trip id="37" depart="1.85" from="r12" to="e7"/>
    <trip id="38" depart="1.90" from="r7" to="e9"/>
    <trip id="39" depart="1.95" from="e4" to="e3"/>
    <trip id="40" depart="2.00" from="r10" to="e4"/>
    <trip id="41" depart="2.05" from="r11" to="r7"/>
    <trip id="42" depart="2.10" from="e7" to="e3"/>
    <trip id="43" depart="2.15" from="r9" to="r1"/>
    <trip id="44" depart="2.20" from="e11" to="e10"/>
    <trip id="45" depart="2.25" from="e11" to="r12"/>
    <trip id="46" depart="2.30" from="r5" to="e8"/>
    <trip id="47" depart="2.35" from="e10" to="e7"/>
    <trip id="48" depart="2.40" from="r9" to="r1"/>
    <trip id="49" depart="2.45" from="r9" to="r6"/>
    <trip id="50" depart="2.50" from="e1" to="r3"/>
    <trip id="51" depart="2.55" from="r2" to="r1"/>
    <trip id="52" depart="2.60" from="e4" to="r12"/>
    <trip id="53" depart="2.65" from="e11" to="e8"/>
    <trip id="54" depart="2.70" from="e8" to="r8"/>
    <trip id="55" depart="2.75" from="r7" to="e4"/>
    <trip id="56" depart="2.80" from="r1" to="e2"/>
    <trip id="57" depart="2.85" from="r7" to="r6"/>
    <trip id="58" depart="2.90" from="e5" to="r12"/>
    <trip id="59" depart="2.95" from="r11" to="e12"/>
    <trip id="60" depart="3.00" from="r4" to="r1"/>
    <trip id="61" depart="3.05" from="r4" to="r1"/>
    <trip id="62" depart="3.10" from="e1" to="e5"/>
    <trip id="63" depart="3.15" from="e1" to="r8"/>
    <trip id="64" depart="3.20" from="r7" to="r5"/>
    <trip id="65" depart="3.25" from="e5" to="e10"/>
    <trip id="66" depart="3.30" from="r7" to="r8"/>
    <trip id="67" depart="3.35" from="e11" to="e9"/>
    <trip id="68" depart="3.40" from="e10" to="r4"/>
    <trip id="69" depart="3.45" from="r4" to="e12"/>
    <trip id="70" depart="3.50" from="e9" to="r10"/>
    <trip id="71" depart="3.55" from="e4" to="r6"/>
    <trip id="72" depart="3.60" from="e8" to="e3"/>
    <trip id="73" depart="3.65" from="r1" to="r3"/>
    <trip id="74" depart="3.70" from="e2" to="e5"/>
    <trip id="75" depart="3.75" from="r9" to="r12"/>
    <trip id="76" depart="3.80" from="e8" to="r1"/>
    <trip id="77" depart="3.85" from="e11" to="e3"/>
    <trip id="78" depart="3.90" from="e6" to="r11"/>
    <trip id="79" depart="3.95" from="e3" to="e3"/>
    <trip id="80" depart="4.00" from="e10" to="r12"/>
    <trip id="81" depart="4.05" from="e3" to="r7"/>
    <trip id="82" depart="4.10" from="r6" to="e10"/>
    <trip id="83" depart="4.15" from="e3" to="r2"/>
    <trip id="84" depart="4.20" from="e3" to="e12"/>
    <trip id="85" depart="4.25" from="r8" to="r10"/>
    <trip id="86" depart="4.30" from="e9" to="r4"/>
    <trip id="87" depart="4.35" from="r5" to="e2"/>
    <trip id="88" depart="4.40" from="e11" to="e8"/>
    <trip id="89" depart="4.45" from="e8" to="e9"/>
    <trip id="90" depart="4.50" from="r3" to="r2"/>
    <trip id="91" depart="4.55" from="r9" to="e11"/>
    <trip id="92" depart="4.60" from="e7" to="e6"/>
    <trip id="93" depart="4.65" from="r6" to="e3"/>
    <trip id="94" depart="4.70" from="e2" to="e8"/>
    <trip id="95" depart="4.75" from="e8" to="e4"/>
    <trip id="96" depart="4.80" from="e3" to="r8"/>
    <trip id="97" depart="4.85" from="e8" to="r6"/>
    <trip id="98" depart="4.90" from="r10" to="e10"/>
    <trip id="99" depart="4.95" from="r9" to="r6"/>
    <trip id="100" depart="5.00" from="r9" to="r8"/>
    <trip id="101" depart="5.05" from="r6" to="e12"/>
    <trip id="102" depart="5.10" from="e9" to="e3"/>
    <trip id="103" depart="5.15" from="e7" to="e10"/>
    <trip id="104" depart="5.20" from="e7" to="r9"/>
    <trip id="105" depart="5.25" from="e4" to="r4"/>
    <trip id="106" depart="5.30" from="e8" to="e8"/>
    <trip id="107" depart="5.35" from="r8" to="r9"/>
    <trip id="108" depart="5.40" from="r10" to="r3"/>
    <trip id="109" depart="5.45" from="e12" to="e5"/>
    <trip id="110" depart="5.50" from="r9" to="r10"/>
    <trip id="111" depart="5.55" from="r10" to="r3"/>
    <trip id="112" depart="5.60" from="e10" to="r11"/>
    <trip id="113" depart="5.65" from="r1" to="r6"/>
    <trip id="114" depart="5.70" from="e12" to="r9"/>
    <trip id="115" depart="5.75" from="e10" to="e2"/>
    <trip id="116" depart="5.80" from="r11" to="r2"/>
    <trip id="117" depart="5.85" from="e3" to="e11"/>
    <trip id="118" depart="5.90" from="r7" to="e3"/>
    <trip id="119" depart="5.95" from="r11" to="r11"/>
    <trip id="120" depart="6.00" from="e8" to="r11"/>
    <trip id="121" depart="6.05" from="r1" to="r8"/>
    <trip id="122" depart="6.10" from="e2" to="r3"/>
    <trip id="123" depart="6.15" from="e3" to="e7"/>
    <trip id="124" depart="6.20" from="r2" to="e5"/>
    <trip id="125" depart="6.25" from="e5" to="r4"/>
    <trip id="126" depart="6.30" from="e10" to="e8"/>
    <trip id="127" depart="6.35" from="r9" to="r9"/>
    <trip id="128" depart="6.40" from="e10" to="e3"/>
    <trip id="129" depart="6.45" from="e4" to="r8"/>
    <trip id="130" depart="6.50" from="r7" to="r7"/>
    <trip id="131" depart="6.55" from="e6" to="e12"/>
    <trip id="132" depart="6.60" from="r6" to="r2"/>
    <trip id="133" depart="6.65" from="r11" to="r9"/>
    <trip id="134" depart="6.70" from="r12" to="e1"/>
    <trip id="135" depart="6.75" from="r5" to="e5"/>
    <trip id="136" depart="6.80" from="r12" to="r8"/>
    <trip id="137" depart="6.85" from="e12" to="e11"/>
    <trip id="138" depart="6.90" from="e11" to="r10"/>
    <trip id="139" depart="6.95" from="e4" to="r11"/>
    <trip id="140" depart="7.00" from="r3" to="e2"/>
    <trip id="141" depart="7.05" from="r12" to="e4"/>
    <trip id="142" depart="7.10" from="e9" to="r7"/>
    <trip id="143" depart="7.15" from="r6" to="e11"/>
    <trip id="144" depart="7.20" from="e8" to="e4"/>
    <trip id="145" depart="7.25" from="e1" to="r4"/>
    <trip id="146" depart="7.30" from="r12" to="e4"/>
    <trip id="147" depart="7.35" from="r3" to="r10"/>
    <trip id="148" depart="7.40" from="e8" to="e1"/>
    <trip id="149" depart="7.45" from="e10" to="r7"/>
    <trip id="150" depart="7.50" from="r7" to="r10"/>
    <trip id="151" depart="7.55" from="r6" to="r10"/>
    <trip id="152" depart="7.60" from="e12" to="e12"/>
    <trip id="153" depart="7.65" from="e5" to="r7"/>
    <trip id="154" depart="7.70" from="r5" to="r6"/>
    <trip id="155" depart="7.75" from="r7" to="e3"/>
    <trip id="156" depart="7.80" from="e3" to="e11"/>
    <trip id="157" depart="7.85" from="r4" to="r7"/>
    <trip id="158" depart="7.90" from="e7" to="r11"/>
    <trip id="159" depart="7.95" from="e12" to="r8"/>
    <trip id="160" depart="8.00" from="r6" to="r9"/>
    <trip id="161" depart="8.05" from="r5" to="r7"/>
    <trip id="162" depart="8.10" from="e1" to="r3"/>
    <trip id="163" depart="8.15" from="e5" to="r8"/>
    <trip id="164" depart="8.20" from="r5" to="r6"/>
    <trip id="165" depart="8.25" from="r5" to="e4"/>
    <trip id="166" depart="8.30" from="r4" to="e11"/>
    <trip id="167" depart="8.35" from="r6" to="r6"/>
    <trip id="168" depart="8.40" from="e3" to="r5"/>
    <trip id="169" depart="8.45" from="e9" to="e5"/>
    <trip id="170" depart="8.50" from="r5" to="e3"/>
    <trip id="171" depart="8.55" from="e1" to="e2"/>
    <trip id="172" depart="8.60" from="e5" to="r6"/>
    <trip id="173" depart="8.65" from="r9" to="e4"/>
    <trip id="174" depart="8.70" from="r12" to="e7"/>
    <trip id="175" depart="8.75" from="r9" to="r1"/>
    <trip id="176" depart="8.80" from="r8" to="e11"/>
    <trip id="177" depart="8.85" from="r9" to="e2"/>
    <trip id="178" depart="8.90" from="r9" to="e4"/>
    <trip id="179" depart="8.95" from="e11" to="e8"/>
    <trip id="180" depart="9.00" from="r3" to="e5"/>
    <trip id="181" depart="9.05" from="r11" to="r1"/>
    <trip id="182" depart="9.10" from="e7" to="r10"/>
    <trip id="183" depart="9.15" from="e4" to="r3"/>
    <trip id="184" depart="9.20" from="e1" to="r8"/>
    <trip id="185" depart="9.25" from="r1" to="r3"/>
    <trip id="186" depart="9.30" from="r3" to="r2"/>
    <trip id="187" depart="9.35" from="e6" to="e10"/>
    <trip id="188" depart="9.40" from="r12" to="e5"/>
    <trip id="189" depart="9.45" from="e5" to="r6"/>
    <trip id="190" depart="9.50" from="r3" to="e5"/>
    <trip id="191" depart="9.55" from="e5" to="e7"/>
    <trip id="192" depart="9.60" from="e7" to="e5"/>
    <trip id="193" depart="9.65" from="e12" to="e8"/>
    <trip id="194" depart="9.70" from="r8" to="r2"/>
    <trip id="195" depart="9.75" from="r7" to="r11"/>
    <trip id="196" depart="9.80" from="e5" to="r10"/>
    <trip id="197" depart="9.85" from="e1" to="e4"/>
    <trip id="198" depart="9.90" from="e8" to="r10"/>
    <trip id="199" depart="9.95" from="r12" to="e9"/>
</routes>
