<?xml version="1.0" encoding="UTF-8"?>

<!-- generated on 01/05/21 18:35:03 by Eclipse SUMO netconvert Version 1.7.0
<configuration xmlns:xsi="http://www.w3.org/2001/XMLSchema-instance" xsi:noNamespaceSchemaLocation="http://sumo.dlr.de/xsd/netconvertConfiguration.xsd">

    <input>
        <node-files value="highway.nod.xml"/>
        <edge-files value="highway.edg.xml"/>
    </input>

    <output>
        <output-file value="highway.net.xml"/>
    </output>

    <report>
        <aggregate-warnings value="5"/>
    </report>

</configuration>
-->

<net version="1.6" junctionCornerDetail="5" limitTurnSpeed="5.50" xmlns:xsi="http://www.w3.org/2001/XMLSchema-instance" xsi:noNamespaceSchemaLocation="http://sumo.dlr.de/xsd/net_file.xsd">

    <location netOffset="0.00,1000.00" convBoundary="0.00,0.00,2000.00,1000.00" origBoundary="0.00,-1000.00,2000.00,0.00" projParameter="!"/>

    <edge id=":1_0" function="internal">
        <lane id=":1_0_0" index="0" speed="11.12" length="28.38" shape="9.60,1008.00 1.90,1006.90 -3.60,1003.60 -6.90,998.10 -8.00,990.40"/>
    </edge>
    <edge id=":1_1" function="internal">
        <lane id=":1_1_0" index="0" speed="10.10" length="23.22" shape="9.60,1004.80 3.30,1003.90 -1.20,1001.20 -3.90,996.70 -4.80,990.40"/>
    </edge>
    <edge id=":1_2" function="internal">
        <lane id=":1_2_0" index="0" speed="8.96" length="18.06" shape="9.60,1001.60 4.70,1000.90 1.20,998.80 -0.90,995.30 -1.60,990.40"/>
    </edge>
    <edge id=":1_3" function="internal">
        <lane id=":1_3_0" index="0" speed="3.90" length="2.58" shape="8.00,990.40 8.10,991.10 8.40,991.60 8.90,991.90 9.60,992.00"/>
    </edge>
    <edge id=":1_4" function="internal">
        <lane id=":1_4_0" index="0" speed="6.08" length="7.74" shape="4.80,990.40 5.10,992.50 6.00,994.00 7.50,994.90 9.60,995.20"/>
    </edge>
    <edge id=":1_5" function="internal">
        <lane id=":1_5_0" index="0" speed="7.66" length="12.90" shape="1.60,990.40 2.10,993.90 3.60,996.40 6.10,997.90 9.60,998.40"/>
    </edge>
    <edge id=":2_0" function="internal">
        <lane id=":2_0_0" index="0" speed="15.00" length="27.20" shape="-8.00,513.60 -8.00,486.40"/>
        <lane id=":2_0_1" index="1" speed="15.00" length="27.20" shape="-4.80,513.60 -4.80,486.40"/>
        <lane id=":2_0_2" index="2" speed="15.00" length="27.20" shape="-1.60,513.60 -1.60,486.40"/>
    </edge>
    <edge id=":2_3" function="internal">
        <lane id=":2_3_0" index="0" speed="10.88" length="9.57" shape="-1.60,513.60 -0.65,505.55 0.00,504.24"/>
    </edge>
    <edge id=":2_4" function="internal">
        <lane id=":2_4_0" index="0" speed="10.36" length="7.98" shape="-1.60,513.60 -0.65,506.95 -0.00,505.87"/>
    </edge>
    <edge id=":2_5" function="internal">
        <lane id=":2_5_0" index="0" speed="3.65" length="2.34" shape="-1.60,513.60 -0.80,512.40 0.00,512.00"/>
    </edge>
    <edge id=":2_15" function="internal">
        <lane id=":2_15_0" index="0" speed="10.88" length="17.57" shape="0.00,504.24 2.20,499.80 6.95,496.35 13.60,495.20"/>
    </edge>
    <edge id=":2_16" function="internal">
        <lane id=":2_16_0" index="0" speed="10.36" length="16.53" shape="-0.00,505.87 2.20,502.20 6.95,499.35 13.60,498.40"/>
    </edge>
    <edge id=":2_17" function="internal">
        <lane id=":2_17_0" index="0" speed="3.65" length="2.34" shape="0.00,512.00 0.80,512.40 1.60,513.60"/>
    </edge>
    <edge id=":2_6" function="internal">
        <lane id=":2_6_0" index="0" speed="6.51" length="9.03" shape="13.60,508.00 11.15,508.35 9.40,509.40 8.35,511.15 8.00,513.60"/>
    </edge>
    <edge id=":2_7" function="internal">
        <lane id=":2_7_0" index="0" speed="11.36" length="29.67" shape="13.60,504.80 5.55,503.65 -0.20,500.20 -3.65,494.45 -4.80,486.40"/>
    </edge>
    <edge id=":2_8" function="internal">
        <lane id=":2_8_0" index="0" speed="10.36" length="24.51" shape="13.60,501.60 6.95,500.65 2.20,497.80 -0.65,493.05 -1.60,486.40"/>
    </edge>
    <edge id=":2_9" function="internal">
        <lane id=":2_9_0" index="0" speed="3.65" length="4.67" shape="13.60,501.60 12.40,500.80 12.00,500.00 12.40,499.20 13.60,498.40"/>
    </edge>
    <edge id=":2_10" function="internal">
        <lane id=":2_10_0" index="0" speed="6.51" length="9.03" shape="8.00,486.40 8.35,488.85 9.40,490.60 11.15,491.65 13.60,492.00"/>
    </edge>
    <edge id=":2_11" function="internal">
        <lane id=":2_11_0" index="0" speed="15.00" length="27.20" shape="8.00,486.40 8.00,513.60"/>
        <lane id=":2_11_1" index="1" speed="15.00" length="27.20" shape="4.80,486.40 4.80,513.60"/>
        <lane id=":2_11_2" index="2" speed="15.00" length="27.20" shape="1.60,486.40 1.60,513.60"/>
    </edge>
    <edge id=":2_14" function="internal">
        <lane id=":2_14_0" index="0" speed="3.65" length="2.34" shape="1.60,486.40 0.80,487.60 0.00,488.00"/>
    </edge>
    <edge id=":2_18" function="internal">
        <lane id=":2_18_0" index="0" speed="3.65" length="2.34" shape="0.00,488.00 -0.80,487.60 -1.60,486.40"/>
    </edge>
    <edge id=":3_0" function="internal">
        <lane id=":3_0_0" index="0" speed="11.12" length="28.38" shape="-8.00,9.60 -6.90,1.90 -3.60,-3.60 1.90,-6.90 9.60,-8.00"/>
    </edge>
    <edge id=":3_1" function="internal">
        <lane id=":3_1_0" index="0" speed="10.10" length="23.22" shape="-4.80,9.60 -3.90,3.30 -1.20,-1.20 3.30,-3.90 9.60,-4.80"/>
    </edge>
    <edge id=":3_2" function="internal">
        <lane id=":3_2_0" index="0" speed="8.96" length="18.06" shape="-1.60,9.60 -0.90,4.70 1.20,1.20 4.70,-0.90 9.60,-1.60"/>
    </edge>
    <edge id=":3_3" function="internal">
        <lane id=":3_3_0" index="0" speed="3.90" length="2.58" shape="9.60,8.00 8.90,8.10 8.40,8.40 8.10,8.90 8.00,9.60"/>
    </edge>
    <edge id=":3_4" function="internal">
        <lane id=":3_4_0" index="0" speed="6.08" length="7.74" shape="9.60,4.80 7.50,5.10 6.00,6.00 5.10,7.50 4.80,9.60"/>
    </edge>
    <edge id=":3_5" function="internal">
        <lane id=":3_5_0" index="0" speed="7.66" length="12.90" shape="9.60,1.60 6.10,2.10 3.60,3.60 2.10,6.10 1.60,9.60"/>
    </edge>
    <edge id=":4_0" function="internal">
        <lane id=":4_0_0" index="0" speed="15.00" length="27.20" shape="1013.60,1008.00 986.40,1008.00"/>
        <lane id=":4_0_1" index="1" speed="15.00" length="27.20" shape="1013.60,1004.80 986.40,1004.80"/>
        <lane id=":4_0_2" index="2" speed="15.00" length="27.20" shape="1013.60,1001.60 986.40,1001.60"/>
    </edge>
    <edge id=":4_3" function="internal">
        <lane id=":4_3_0" index="0" speed="10.88" length="9.57" shape="1013.60,1001.60 1005.55,1000.65 1004.24,1000.00"/>
    </edge>
    <edge id=":4_4" function="internal">
        <lane id=":4_4_0" index="0" speed="10.36" length="7.98" shape="1013.60,1001.60 1006.95,1000.65 1005.87,1000.00"/>
    </edge>
    <edge id=":4_5" function="internal">
        <lane id=":4_5_0" index="0" speed="3.65" length="2.34" shape="1013.60,1001.60 1012.40,1000.80 1012.00,1000.00"/>
    </edge>
    <edge id=":4_15" function="internal">
        <lane id=":4_15_0" index="0" speed="10.88" length="17.57" shape="1004.24,1000.00 999.80,997.80 996.35,993.05 995.20,986.40"/>
    </edge>
    <edge id=":4_16" function="internal">
        <lane id=":4_16_0" index="0" speed="10.36" length="16.53" shape="1005.87,1000.00 1002.20,997.80 999.35,993.05 998.40,986.40"/>
    </edge>
    <edge id=":4_17" function="internal">
        <lane id=":4_17_0" index="0" speed="3.65" length="2.34" shape="1012.00,1000.00 1012.40,999.20 1013.60,998.40"/>
    </edge>
    <edge id=":4_6" function="internal">
        <lane id=":4_6_0" index="0" speed="6.51" length="9.03" shape="1008.00,986.40 1008.35,988.85 1009.40,990.60 1011.15,991.65 1013.60,992.00"/>
    </edge>
    <edge id=":4_7" function="internal">
        <lane id=":4_7_0" index="0" speed="11.36" length="29.67" shape="1004.80,986.40 1003.65,994.45 1000.20,1000.20 994.45,1003.65 986.40,1004.80"/>
    </edge>
    <edge id=":4_8" function="internal">
        <lane id=":4_8_0" index="0" speed="10.36" length="24.51" shape="1001.60,986.40 1000.65,993.05 997.80,997.80 993.05,1000.65 986.40,1001.60"/>
    </edge>
    <edge id=":4_9" function="internal">
        <lane id=":4_9_0" index="0" speed="3.65" length="4.67" shape="1001.60,986.40 1000.80,987.60 1000.00,988.00 999.20,987.60 998.40,986.40"/>
    </edge>
    <edge id=":4_10" function="internal">
        <lane id=":4_10_0" index="0" speed="6.51" length="9.03" shape="986.40,992.00 988.85,991.65 990.60,990.60 991.65,988.85 992.00,986.40"/>
    </edge>
    <edge id=":4_11" function="internal">
        <lane id=":4_11_0" index="0" speed="15.00" length="27.20" shape="986.40,992.00 1013.60,992.00"/>
        <lane id=":4_11_1" index="1" speed="15.00" length="27.20" shape="986.40,995.20 1013.60,995.20"/>
        <lane id=":4_11_2" index="2" speed="15.00" length="27.20" shape="986.40,998.40 1013.60,998.40"/>
    </edge>
    <edge id=":4_14" function="internal">
        <lane id=":4_14_0" index="0" speed="3.65" length="2.34" shape="986.40,998.40 987.60,999.20 988.00,1000.00"/>
    </edge>
    <edge id=":4_18" function="internal">
        <lane id=":4_18_0" index="0" speed="3.65" length="2.34" shape="988.00,1000.00 987.60,1000.80 986.40,1001.60"/>
    </edge>
    <edge id=":5_0" function="internal">
        <lane id=":5_0_0" index="0" speed="6.51" length="9.03" shape="992.00,513.60 991.65,511.15 990.60,509.40 988.85,508.35 986.40,508.00"/>
    </edge>
    <edge id=":5_1" function="internal">
        <lane id=":5_1_0" index="0" speed="15.00" length="27.20" shape="992.00,513.60 992.00,486.40"/>
        <lane id=":5_1_1" index="1" speed="15.00" length="27.20" shape="995.20,513.60 995.20,486.40"/>
        <lane id=":5_1_2" index="2" speed="15.00" length="27.20" shape="998.40,513.60 998.40,486.40"/>
    </edge>
    <edge id=":5_4" function="internal">
        <lane id=":5_4_0" index="0" speed="10.36" length="7.98" shape="998.40,513.60 999.35,506.95 1000.00,505.87"/>
    </edge>
    <edge id=":5_5" function="internal">
        <lane id=":5_5_0" index="0" speed="3.65" length="2.34" shape="998.40,513.60 999.20,512.40 1000.00,512.00"/>
    </edge>
    <edge id=":5_24" function="internal">
        <lane id=":5_24_0" index="0" speed="10.36" length="16.53" shape="1000.00,505.87 1002.20,502.20 1006.95,499.35 1013.60,498.40"/>
    </edge>
    <edge id=":5_25" function="internal">
        <lane id=":5_25_0" index="0" speed="3.65" length="2.34" shape="1000.00,512.00 1000.80,512.40 1001.60,513.60"/>
    </edge>
    <edge id=":5_6" function="internal">
        <lane id=":5_6_0" index="0" speed="6.51" length="9.03" shape="1013.60,508.00 1011.15,508.35 1009.40,509.40 1008.35,511.15 1008.00,513.60"/>
    </edge>
    <edge id=":5_7" function="internal">
        <lane id=":5_7_0" index="0" speed="15.00" length="27.20" shape="1013.60,508.00 986.40,508.00"/>
        <lane id=":5_7_1" index="1" speed="15.00" length="27.20" shape="1013.60,504.80 986.40,504.80"/>
        <lane id=":5_7_2" index="2" speed="15.00" length="27.20" shape="1013.60,501.60 986.40,501.60"/>
    </edge>
    <edge id=":5_10" function="internal">
        <lane id=":5_10_0" index="0" speed="10.36" length="24.51" shape="1013.60,501.60 1006.95,500.65 1002.20,497.80 999.35,493.05 998.40,486.40"/>
    </edge>
    <edge id=":5_11" function="internal">
        <lane id=":5_11_0" index="0" speed="3.65" length="4.67" shape="1013.60,501.60 1012.40,500.80 1012.00,500.00 1012.40,499.20 1013.60,498.40"/>
    </edge>
    <edge id=":5_12" function="internal">
        <lane id=":5_12_0" index="0" speed="6.51" length="9.03" shape="1008.00,486.40 1008.35,488.85 1009.40,490.60 1011.15,491.65 1013.60,492.00"/>
    </edge>
    <edge id=":5_13" function="internal">
        <lane id=":5_13_0" index="0" speed="15.00" length="27.20" shape="1008.00,486.40 1008.00,513.60"/>
        <lane id=":5_13_1" index="1" speed="15.00" length="27.20" shape="1004.80,486.40 1004.80,513.60"/>
        <lane id=":5_13_2" index="2" speed="15.00" length="27.20" shape="1001.60,486.40 1001.60,513.60"/>
    </edge>
    <edge id=":5_16" function="internal">
        <lane id=":5_16_0" index="0" speed="10.36" length="7.98" shape="1001.60,486.40 1000.65,493.05 1000.00,494.13"/>
    </edge>
    <edge id=":5_17" function="internal">
        <lane id=":5_17_0" index="0" speed="3.65" length="2.34" shape="1001.60,486.40 1000.80,487.60 1000.00,488.00"/>
    </edge>
    <edge id=":5_26" function="internal">
        <lane id=":5_26_0" index="0" speed="10.36" length="16.53" shape="1000.00,494.13 997.80,497.80 993.05,500.65 986.40,501.60"/>
    </edge>
    <edge id=":5_27" function="internal">
        <lane id=":5_27_0" index="0" speed="3.65" length="2.34" shape="1000.00,488.00 999.20,487.60 998.40,486.40"/>
    </edge>
    <edge id=":5_18" function="internal">
        <lane id=":5_18_0" index="0" speed="6.51" length="9.03" shape="986.40,492.00 988.85,491.65 990.60,490.60 991.65,488.85 992.00,486.40"/>
    </edge>
    <edge id=":5_19" function="internal">
        <lane id=":5_19_0" index="0" speed="15.00" length="27.20" shape="986.40,492.00 1013.60,492.00"/>
        <lane id=":5_19_1" index="1" speed="15.00" length="27.20" shape="986.40,495.20 1013.60,495.20"/>
        <lane id=":5_19_2" index="2" speed="15.00" length="27.20" shape="986.40,498.40 1013.60,498.40"/>
    </edge>
    <edge id=":5_22" function="internal">
        <lane id=":5_22_0" index="0" speed="10.36" length="24.51" shape="986.40,498.40 993.05,499.35 997.80,502.20 1000.65,506.95 1001.60,513.60"/>
    </edge>
    <edge id=":5_23" function="internal">
        <lane id=":5_23_0" index="0" speed="3.65" length="4.67" shape="986.40,498.40 987.60,499.20 988.00,500.00 987.60,500.80 986.40,501.60"/>
    </edge>
    <edge id=":6_0" function="internal">
        <lane id=":6_0_0" index="0" speed="6.51" length="9.03" shape="992.00,13.60 991.65,11.15 990.60,9.40 988.85,8.35 986.40,8.00"/>
    </edge>
    <edge id=":6_1" function="internal">
        <lane id=":6_1_0" index="0" speed="11.36" length="29.67" shape="995.20,13.60 996.35,5.55 999.80,-0.20 1005.55,-3.65 1013.60,-4.80"/>
    </edge>
    <edge id=":6_2" function="internal">
        <lane id=":6_2_0" index="0" speed="10.36" length="24.51" shape="998.40,13.60 999.35,6.95 1002.20,2.20 1006.95,-0.65 1013.60,-1.60"/>
    </edge>
    <edge id=":6_3" function="internal">
        <lane id=":6_3_0" index="0" speed="3.65" length="4.67" shape="998.40,13.60 999.20,12.40 1000.00,12.00 1000.80,12.40 1001.60,13.60"/>
    </edge>
    <edge id=":6_4" function="internal">
        <lane id=":6_4_0" index="0" speed="6.51" length="9.03" shape="1013.60,8.00 1011.15,8.35 1009.40,9.40 1008.35,11.15 1008.00,13.60"/>
    </edge>
    <edge id=":6_5" function="internal">
        <lane id=":6_5_0" index="0" speed="15.00" length="27.20" shape="1013.60,8.00 986.40,8.00"/>
        <lane id=":6_5_1" index="1" speed="15.00" length="27.20" shape="1013.60,4.80 986.40,4.80"/>
        <lane id=":6_5_2" index="2" speed="15.00" length="27.20" shape="1013.60,1.60 986.40,1.60"/>
    </edge>
    <edge id=":6_8" function="internal">
        <lane id=":6_8_0" index="0" speed="3.65" length="2.34" shape="1013.60,1.60 1012.40,0.80 1012.00,0.00"/>
    </edge>
    <edge id=":6_15" function="internal">
        <lane id=":6_15_0" index="0" speed="3.65" length="2.34" shape="1012.00,0.00 1012.40,-0.80 1013.60,-1.60"/>
    </edge>
    <edge id=":6_9" function="internal">
        <lane id=":6_9_0" index="0" speed="15.00" length="27.20" shape="986.40,-8.00 1013.60,-8.00"/>
        <lane id=":6_9_1" index="1" speed="15.00" length="27.20" shape="986.40,-4.80 1013.60,-4.80"/>
        <lane id=":6_9_2" index="2" speed="15.00" length="27.20" shape="986.40,-1.60 1013.60,-1.60"/>
    </edge>
    <edge id=":6_12" function="internal">
        <lane id=":6_12_0" index="0" speed="10.88" length="9.57" shape="986.40,-1.60 994.45,-0.65 995.76,-0.00"/>
    </edge>
    <edge id=":6_13" function="internal">
        <lane id=":6_13_0" index="0" speed="10.36" length="7.98" shape="986.40,-1.60 993.05,-0.65 994.13,-0.00"/>
    </edge>
    <edge id=":6_14" function="internal">
        <lane id=":6_14_0" index="0" speed="3.65" length="2.34" shape="986.40,-1.60 987.60,-0.80 988.00,0.00"/>
    </edge>
    <edge id=":6_16" function="internal">
        <lane id=":6_16_0" index="0" speed="10.88" length="17.57" shape="995.76,-0.00 1000.20,2.20 1003.65,6.95 1004.80,13.60"/>
    </edge>
    <edge id=":6_17" function="internal">
        <lane id=":6_17_0" index="0" speed="10.36" length="16.53" shape="994.13,-0.00 997.80,2.20 1000.65,6.95 1001.60,13.60"/>
    </edge>
    <edge id=":6_18" function="internal">
        <lane id=":6_18_0" index="0" speed="3.65" length="2.34" shape="988.00,0.00 987.60,0.80 986.40,1.60"/>
    </edge>
    <edge id=":7_0" function="internal">
        <lane id=":7_0_0" index="0" speed="11.12" length="28.38" shape="2008.00,990.40 2006.90,998.10 2003.60,1003.60 1998.10,1006.90 1990.40,1008.00"/>
    </edge>
    <edge id=":7_1" function="internal">
        <lane id=":7_1_0" index="0" speed="10.10" length="23.22" shape="2004.80,990.40 2003.90,996.70 2001.20,1001.20 1996.70,1003.90 1990.40,1004.80"/>
    </edge>
    <edge id=":7_2" function="internal">
        <lane id=":7_2_0" index="0" speed="8.96" length="18.06" shape="2001.60,990.40 2000.90,995.30 1998.80,998.80 1995.30,1000.90 1990.40,1001.60"/>
    </edge>
    <edge id=":7_3" function="internal">
        <lane id=":7_3_0" index="0" speed="3.90" length="2.58" shape="1990.40,992.00 1991.10,991.90 1991.60,991.60 1991.90,991.10 1992.00,990.40"/>
    </edge>
    <edge id=":7_4" function="internal">
        <lane id=":7_4_0" index="0" speed="6.08" length="7.74" shape="1990.40,995.20 1992.50,994.90 1994.00,994.00 1994.90,992.50 1995.20,990.40"/>
    </edge>
    <edge id=":7_5" function="internal">
        <lane id=":7_5_0" index="0" speed="7.66" length="12.90" shape="1990.40,998.40 1993.90,997.90 1996.40,996.40 1997.90,993.90 1998.40,990.40"/>
    </edge>
    <edge id=":8_0" function="internal">
        <lane id=":8_0_0" index="0" speed="6.51" length="9.03" shape="1992.00,513.60 1991.65,511.15 1990.60,509.40 1988.85,508.35 1986.40,508.00"/>
    </edge>
    <edge id=":8_1" function="internal">
        <lane id=":8_1_0" index="0" speed="15.00" length="27.20" shape="1992.00,513.60 1992.00,486.40"/>
        <lane id=":8_1_1" index="1" speed="15.00" length="27.20" shape="1995.20,513.60 1995.20,486.40"/>
        <lane id=":8_1_2" index="2" speed="15.00" length="27.20" shape="1998.40,513.60 1998.40,486.40"/>
    </edge>
    <edge id=":8_4" function="internal">
        <lane id=":8_4_0" index="0" speed="3.65" length="2.34" shape="1998.40,513.60 1999.20,512.40 2000.00,512.00"/>
    </edge>
    <edge id=":8_15" function="internal">
        <lane id=":8_15_0" index="0" speed="3.65" length="2.34" shape="2000.00,512.00 2000.80,512.40 2001.60,513.60"/>
    </edge>
    <edge id=":8_5" function="internal">
        <lane id=":8_5_0" index="0" speed="15.00" length="27.20" shape="2008.00,486.40 2008.00,513.60"/>
        <lane id=":8_5_1" index="1" speed="15.00" length="27.20" shape="2004.80,486.40 2004.80,513.60"/>
        <lane id=":8_5_2" index="2" speed="15.00" length="27.20" shape="2001.60,486.40 2001.60,513.60"/>
    </edge>
    <edge id=":8_8" function="internal">
        <lane id=":8_8_0" index="0" speed="10.88" length="9.57" shape="2001.60,486.40 2000.65,494.45 2000.00,495.76"/>
    </edge>
    <edge id=":8_9" function="internal">
        <lane id=":8_9_0" index="0" speed="10.36" length="7.98" shape="2001.60,486.40 2000.65,493.05 2000.00,494.13"/>
    </edge>
    <edge id=":8_10" function="internal">
        <lane id=":8_10_0" index="0" speed="3.65" length="2.34" shape="2001.60,486.40 2000.80,487.60 2000.00,488.00"/>
    </edge>
    <edge id=":8_16" function="internal">
        <lane id=":8_16_0" index="0" speed="10.88" length="17.57" shape="2000.00,495.76 1997.80,500.20 1993.05,503.65 1986.40,504.80"/>
    </edge>
    <edge id=":8_17" function="internal">
        <lane id=":8_17_0" index="0" speed="10.36" length="16.53" shape="2000.00,494.13 1997.80,497.80 1993.05,500.65 1986.40,501.60"/>
    </edge>
    <edge id=":8_18" function="internal">
        <lane id=":8_18_0" index="0" speed="3.65" length="2.34" shape="2000.00,488.00 1999.20,487.60 1998.40,486.40"/>
    </edge>
    <edge id=":8_11" function="internal">
        <lane id=":8_11_0" index="0" speed="6.51" length="9.03" shape="1986.40,492.00 1988.85,491.65 1990.60,490.60 1991.65,488.85 1992.00,486.40"/>
    </edge>
    <edge id=":8_12" function="internal">
        <lane id=":8_12_0" index="0" speed="11.36" length="29.67" shape="1986.40,495.20 1994.45,496.35 2000.20,499.80 2003.65,505.55 2004.80,513.60"/>
    </edge>
    <edge id=":8_13" function="internal">
        <lane id=":8_13_0" index="0" speed="10.36" length="24.51" shape="1986.40,498.40 1993.05,499.35 1997.80,502.20 2000.65,506.95 2001.60,513.60"/>
    </edge>
    <edge id=":8_14" function="internal">
        <lane id=":8_14_0" index="0" speed="3.65" length="4.67" shape="1986.40,498.40 1987.60,499.20 1988.00,500.00 1987.60,500.80 1986.40,501.60"/>
    </edge>
    <edge id=":9_0" function="internal">
        <lane id=":9_0_0" index="0" speed="3.90" length="2.58" shape="1992.00,9.60 1991.90,8.90 1991.60,8.40 1991.10,8.10 1990.40,8.00"/>
    </edge>
    <edge id=":9_1" function="internal">
        <lane id=":9_1_0" index="0" speed="6.08" length="7.74" shape="1995.20,9.60 1994.90,7.50 1994.00,6.00 1992.50,5.10 1990.40,4.80"/>
    </edge>
    <edge id=":9_2" function="internal">
        <lane id=":9_2_0" index="0" speed="7.66" length="12.90" shape="1998.40,9.60 1997.90,6.10 1996.40,3.60 1993.90,2.10 1990.40,1.60"/>
    </edge>
    <edge id=":9_3" function="internal">
        <lane id=":9_3_0" index="0" speed="11.12" length="28.38" shape="1990.40,-8.00 1998.10,-6.90 2003.60,-3.60 2006.90,1.90 2008.00,9.60"/>
    </edge>
    <edge id=":9_4" function="internal">
        <lane id=":9_4_0" index="0" speed="10.10" length="23.22" shape="1990.40,-4.80 1996.70,-3.90 2001.20,-1.20 2003.90,3.30 2004.80,9.60"/>
    </edge>
    <edge id=":9_5" function="internal">
        <lane id=":9_5_0" index="0" speed="8.96" length="18.06" shape="1990.40,-1.60 1995.30,-0.90 1998.80,1.20 2000.90,4.70 2001.60,9.60"/>
    </edge>

    <edge id="e1" from="1" to="2" priority="2">
        <lane id="e1_0" index="0" speed="15.00" length="476.80" shape="-8.00,990.40 -8.00,513.60"/>
        <lane id="e1_1" index="1" speed="15.00" length="476.80" shape="-4.80,990.40 -4.80,513.60"/>
        <lane id="e1_2" index="2" speed="15.00" length="476.80" shape="-1.60,990.40 -1.60,513.60"/>
    </edge>
    <edge id="e10" from="5" to="8" priority="2">
        <lane id="e10_0" index="0" speed="15.00" length="972.80" shape="1013.60,492.00 1986.40,492.00"/>
        <lane id="e10_1" index="1" speed="15.00" length="972.80" shape="1013.60,495.20 1986.40,495.20"/>
        <lane id="e10_2" index="2" speed="15.00" length="972.80" shape="1013.60,498.40 1986.40,498.40"/>
    </edge>
    <edge id="e11" from="3" to="6" priority="2">
        <lane id="e11_0" index="0" speed="15.00" length="976.80" shape="9.60,-8.00 986.40,-8.00"/>
        <lane id="e11_1" index="1" speed="15.00" length="976.80" shape="9.60,-4.80 986.40,-4.80"/>
        <lane id="e11_2" index="2" speed="15.00" length="976.80" shape="9.60,-1.60 986.40,-1.60"/>
    </edge>
    <edge id="e12" from="6" to="9" priority="2">
        <lane id="e12_0" index="0" speed="15.00" length="976.80" shape="1013.60,-8.00 1990.40,-8.00"/>
        <lane id="e12_1" index="1" speed="15.00" length="976.80" shape="1013.60,-4.80 1990.40,-4.80"/>
        <lane id="e12_2" index="2" speed="15.00" length="976.80" shape="1013.60,-1.60 1990.40,-1.60"/>
    </edge>
    <edge id="e2" from="2" to="3" priority="2">
        <lane id="e2_0" index="0" speed="15.00" length="476.80" shape="-8.00,486.40 -8.00,9.60"/>
        <lane id="e2_1" index="1" speed="15.00" length="476.80" shape="-4.80,486.40 -4.80,9.60"/>
        <lane id="e2_2" index="2" speed="15.00" length="476.80" shape="-1.60,486.40 -1.60,9.60"/>
    </edge>
    <edge id="e3" from="4" to="5" priority="2">
        <lane id="e3_0" index="0" speed="15.00" length="472.80" shape="992.00,986.40 992.00,513.60"/>
        <lane id="e3_1" index="1" speed="15.00" length="472.80" shape="995.20,986.40 995.20,513.60"/>
        <lane id="e3_2" index="2" speed="15.00" length="472.80" shape="998.40,986.40 998.40,513.60"/>
    </edge>
    <edge id="e4" from="5" to="6" priority="2">
        <lane id="e4_0" index="0" speed="15.00" length="472.80" shape="992.00,486.40 992.00,13.60"/>
        <lane id="e4_1" index="1" speed="15.00" length="472.80" shape="995.20,486.40 995.20,13.60"/>
        <lane id="e4_2" index="2" speed="15.00" length="472.80" shape="998.40,486.40 998.40,13.60"/>
    </edge>
    <edge id="e5" from="7" to="8" priority="2">
        <lane id="e5_0" index="0" speed="15.00" length="476.80" shape="1992.00,990.40 1992.00,513.60"/>
        <lane id="e5_1" index="1" speed="15.00" length="476.80" shape="1995.20,990.40 1995.20,513.60"/>
        <lane id="e5_2" index="2" speed="15.00" length="476.80" shape="1998.40,990.40 1998.40,513.60"/>
    </edge>
    <edge id="e6" from="8" to="9" priority="2">
        <lane id="e6_0" index="0" speed="15.00" length="476.80" shape="1992.00,486.40 1992.00,9.60"/>
        <lane id="e6_1" index="1" speed="15.00" length="476.80" shape="1995.20,486.40 1995.20,9.60"/>
        <lane id="e6_2" index="2" speed="15.00" length="476.80" shape="1998.40,486.40 1998.40,9.60"/>
    </edge>
    <edge id="e7" from="1" to="4" priority="2">
        <lane id="e7_0" index="0" speed="15.00" length="976.80" shape="9.60,992.00 986.40,992.00"/>
        <lane id="e7_1" index="1" speed="15.00" length="976.80" shape="9.60,995.20 986.40,995.20"/>
        <lane id="e7_2" index="2" speed="15.00" length="976.80" shape="9.60,998.40 986.40,998.40"/>
    </edge>
    <edge id="e8" from="4" to="7" priority="2">
        <lane id="e8_0" index="0" speed="15.00" length="976.80" shape="1013.60,992.00 1990.40,992.00"/>
        <lane id="e8_1" index="1" speed="15.00" length="976.80" shape="1013.60,995.20 1990.40,995.20"/>
        <lane id="e8_2" index="2" speed="15.00" length="976.80" shape="1013.60,998.40 1990.40,998.40"/>
    </edge>
    <edge id="e9" from="2" to="5" priority="2">
        <lane id="e9_0" index="0" speed="15.00" length="972.80" shape="13.60,492.00 986.40,492.00"/>
        <lane id="e9_1" index="1" speed="15.00" length="972.80" shape="13.60,495.20 986.40,495.20"/>
        <lane id="e9_2" index="2" speed="15.00" length="972.80" shape="13.60,498.40 986.40,498.40"/>
    </edge>
    <edge id="r1" from="2" to="1" priority="2">
        <lane id="r1_0" index="0" speed="15.00" length="476.80" shape="8.00,513.60 8.00,990.40"/>
        <lane id="r1_1" index="1" speed="15.00" length="476.80" shape="4.80,513.60 4.80,990.40"/>
        <lane id="r1_2" index="2" speed="15.00" length="476.80" shape="1.60,513.60 1.60,990.40"/>
    </edge>
    <edge id="r10" from="8" to="5" priority="2">
        <lane id="r10_0" index="0" speed="15.00" length="972.80" shape="1986.40,508.00 1013.60,508.00"/>
        <lane id="r10_1" index="1" speed="15.00" length="972.80" shape="1986.40,504.80 1013.60,504.80"/>
        <lane id="r10_2" index="2" speed="15.00" length="972.80" shape="1986.40,501.60 1013.60,501.60"/>
    </edge>
    <edge id="r11" from="6" to="3" priority="2">
        <lane id="r11_0" index="0" speed="15.00" length="976.80" shape="986.40,8.00 9.60,8.00"/>
        <lane id="r11_1" index="1" speed="15.00" length="976.80" shape="986.40,4.80 9.60,4.80"/>
        <lane id="r11_2" index="2" speed="15.00" length="976.80" shape="986.40,1.60 9.60,1.60"/>
    </edge>
    <edge id="r12" from="9" to="6" priority="2">
        <lane id="r12_0" index="0" speed="15.00" length="976.80" shape="1990.40,8.00 1013.60,8.00"/>
        <lane id="r12_1" index="1" speed="15.00" length="976.80" shape="1990.40,4.80 1013.60,4.80"/>
        <lane id="r12_2" index="2" speed="15.00" length="976.80" shape="1990.40,1.60 1013.60,1.60"/>
    </edge>
    <edge id="r2" from="3" to="2" priority="2">
        <lane id="r2_0" index="0" speed="15.00" length="476.80" shape="8.00,9.60 8.00,486.40"/>
        <lane id="r2_1" index="1" speed="15.00" length="476.80" shape="4.80,9.60 4.80,486.40"/>
        <lane id="r2_2" index="2" speed="15.00" length="476.80" shape="1.60,9.60 1.60,486.40"/>
    </edge>
    <edge id="r3" from="5" to="4" priority="2">
        <lane id="r3_0" index="0" speed="15.00" length="472.80" shape="1008.00,513.60 1008.00,986.40"/>
        <lane id="r3_1" index="1" speed="15.00" length="472.80" shape="1004.80,513.60 1004.80,986.40"/>
        <lane id="r3_2" index="2" speed="15.00" length="472.80" shape="1001.60,513.60 1001.60,986.40"/>
    </edge>
    <edge id="r4" from="6" to="5" priority="2">
        <lane id="r4_0" index="0" speed="15.00" length="472.80" shape="1008.00,13.60 1008.00,486.40"/>
        <lane id="r4_1" index="1" speed="15.00" length="472.80" shape="1004.80,13.60 1004.80,486.40"/>
        <lane id="r4_2" index="2" speed="15.00" length="472.80" shape="1001.60,13.60 1001.60,486.40"/>
    </edge>
    <edge id="r5" from="8" to="7" priority="2">
        <lane id="r5_0" index="0" speed="15.00" length="476.80" shape="2008.00,513.60 2008.00,990.40"/>
        <lane id="r5_1" index="1" speed="15.00" length="476.80" shape="2004.80,513.60 2004.80,990.40"/>
        <lane id="r5_2" index="2" speed="15.00" length="476.80" shape="2001.60,513.60 2001.60,990.40"/>
    </edge>
    <edge id="r6" from="9" to="8" priority="2">
        <lane id="r6_0" index="0" speed="15.00" length="476.80" shape="2008.00,9.60 2008.00,486.40"/>
        <lane id="r6_1" index="1" speed="15.00" length="476.80" shape="2004.80,9.60 2004.80,486.40"/>
        <lane id="r6_2" index="2" speed="15.00" length="476.80" shape="2001.60,9.60 2001.60,486.40"/>
    </edge>