<?xml version="1.0" encoding="UTF-8"?>

<!-- generated on 01/07/21 22:08:30 by Eclipse SUMO duarouter Version 1.7.0
<configuration xmlns:xsi="http://www.w3.org/2001/XMLSchema-instance" xsi:noNamespaceSchemaLocation="http://sumo.dlr.de/xsd/duarouterConfiguration.xsd">

    <input>
        <net-file value="highway.net.xml"/>
        <route-files value="highway.trips.xml"/>
    </input>

    <output>
        <output-file value="highway.rou.xml"/>
        <alternatives-output value="highway.rou.alt.xml"/>
    </output>

    <report>
        <ignore-errors value="true"/>
    </report>

</configuration>
-->

<routes xmlns:xsi="http://www.w3.org/2001/XMLSchema-instance" xsi:noNamespaceSchemaLocation="http://sumo.dlr.de/xsd/routes_file.xsd">
    <vehicle id="0" depart="0.00">
        <route edges="r12 r4 r3 r7 e1"/>
    </vehicle>
    <vehicle id="1" depart="0.05">
        <route edges="e4 r4 r3 e3"/>
    </vehicle>
    <vehicle id="2" depart="0.10">
        <route edges="r3 e3 e4 r11 r2"/>
    </vehicle>
    <vehicle id="3" depart="0.15">
        <route edges="r7 e1 e2 e11"/>
    </vehicle>
    <vehicle id="4" depart="0.20">
        <route edges="e8 e5 r10 r3 r7 e1"/>
    </vehicle>
    <vehicle id="5" depart="0.25">
        <route edges="e3 r9 r1"/>
    </vehicle>
    <vehicle id="6" depart="0.30">
        <route edges="e1 e2"/>
    </vehicle>
    <vehicle id="7" depart="0.35">
        <route edges="r12 r4 e10 r10"/>
    </vehicle>
    <vehicle id="8" depart="0.40">
        <route edges="e3 e4 r11"/>
    </vehicle>
    <vehicle id="9" depart="0.45">
        <route edges="r5 r8 r7 e1"/>
    </vehicle>
    <vehicle id="10" depart="0.50">
        <route edges="r5 r8 e3 e4 r11 r2"/>
    </vehicle>
    <vehicle id="11" depart="0.55">
        <route edges="e6 r12 e12"/>
    </vehicle>
    <vehicle id="12" depart="0.60">
        <route edges="r8 e8 e5 e6"/>
    </vehicle>
    <vehicle id="13" depart="0.65">
        <route edges="e11"/>
    </vehicle>
    <vehicle id="14" depart="0.70">
        <route edges="r6 e6 r12 r11"/>
    </vehicle>
    <vehicle id="15" depart="0.75">
        <route edges="r5 r8 e3 r3"/>
    </vehicle>
    <vehicle id="16" depart="0.80">
        <route edges="r1 e7 e3 r9"/>
    </vehicle>
    <vehicle id="17" depart="0.85">
        <route edges="e7 e8 e5 r10"/>
    </vehicle>
    <vehicle id="18" depart="0.90">
        <route edges="r5 r8 e3 e4 r11"/>
    </vehicle>
    <vehicle id="19" depart="0.95">
        <route edges="r6 r10"/>
    </vehicle>
    <vehicle id="20" depart="1.00">
        <route edges="r2 e9 e10"/>
    </vehicle>
    <vehicle id="21" depart="1.05">
        <route edges="e3 e4"/>
    </vehicle>
    <vehicle id="22" depart="1.10">
        <route edges="e10 r10 r3 e3"/>
    </vehicle>
    <vehicle id="23" depart="1.15">
        <route edges="e11 r4 e4"/>
    </vehicle>
    <vehicle id="24" depart="1.20">
        <route edges="r12 r4 e10 e6"/>
    </vehicle>
    <vehicle id="25" depart="1.25">
        <route edges="e6 r12 r4 r3 e3"/>
    </vehicle>
    <vehicle id="26" depart="1.30">
        <route edges="e4 r4 e10 r5 r8"/>
    </vehicle>
    <vehicle id="27" depart="1.35">
        <route edges="r12 r11"/>
    </vehicle>
    <vehicle id="28" depart="1.40">
        <route edges="e2 e11 r4 r3"/>
    </vehicle>
    <vehicle id="29" depart="1.45">
        <route edges="e12 r6 r10 r9 r1 e7"/>
    </vehicle>
    <vehicle id="30" depart="1.50">
        <route edges="r9 e9 e10 e6 r12"/>
    </vehicle>
    <vehicle id="31" depart="1.55">
        <route edges="r10 e4 r11 r2"/>
    </vehicle>
    <vehicle id="32" depart="1.60">
        <route edges="r6 e6 r12 r4"/>
    </vehicle>
    <vehicle id="33" depart="1.65">
        <route edges="e3 r3 r7 e1"/>
    </vehicle>
    <vehicle id="34" depart="1.70">
        <route edges="e5 r10 e4"/>
    </vehicle>
    <vehicle id="35" depart="1.75">
        <route edges="e3 e10 r5 r8"/>
    </vehicle>
    <vehicle id="36" depart="1.80">
        <route edges="r7 e1 r1 e7 e8 e5"/>
    </vehicle>
    <vehicle id="37" depart="1.85">
        <route edges="r12 r11 r2 r1 e7"/>
    </vehicle>
    <vehicle id="38" depart="1.90">
        <route edges="r7 e1 e9"/>
    </vehicle>
    <vehicle id="39" depart="1.95">
        <route edges="e4 r4 r3 e3"/>
    </vehicle>
    <vehicle id="40" depart="2.00">
        <route edges="r10 e4"/>
    </vehicle>
    <vehicle id="41" depart="2.05">
        <route edges="r11 r2 r1 e7 r7"/>
    </vehicle>
    <vehicle id="42" depart="2.10">
        <route edges="e7 e3"/>
    </vehicle>
    <vehicle id="43" depart="2.15">
        <route edges="r9 r1"/>
    </vehicle>
    <vehicle id="44" depart="2.20">
        <route edges="e11 r4 e10"/>
    </vehicle>
    <vehicle id="45" depart="2.25">
        <route edges="e11 e12 r6 e6 r12"/>
    </vehicle>
    <vehicle id="46" depart="2.30">
        <route edges="r5 r8 e8"/>
    </vehicle>
    <vehicle id="47" depart="2.35">
        <route edges="e10 r10 r9 r1 e7"/>
    </vehicle>
    <vehicle id="48" depart="2.40">
        <route edges="r9 r1"/>
    </vehicle>
    <vehicle id="49" depart="2.45">
        <route edges="r9 e2 e11 e12 r6"/>
    </vehicle>
    <vehicle id="50" depart="2.50">
        <route edges="e1 e9 r3"/>
    </vehicle>
    <vehicle id="51" depart="2.55">
        <route edges="r2 r1"/>
    </vehicle>
    <vehicle id="52" depart="2.60">
        <route edges="e4 r4 e10 e6 r12"/>
    </vehicle>
    <vehicle id="53" depart="2.65">
        <route edges="e11 r4 r3 e8"/>
    </vehicle>
    <vehicle id="54" depart="2.70">
        <route edges="e8 e5 r5 r8"/>
    </vehicle>
    <vehicle id="55" depart="2.75">
        <route edges="r7 e1 e9 e4"/>
    </vehicle>
    <vehicle id="56" depart="2.80">
        <route edges="r1 e7 e3 r9 e2"/>
    </vehicle>
    <vehicle id="57" depart="2.85">
        <route edges="r7 e1 e2 e11 e12 r6"/>
    </vehicle>
    <vehicle id="58" depart="2.90">
        <route edges="e5 e6 r12"/>
    </vehicle>
    <vehicle id="59" depart="2.95">
        <route edges="r11 r2 e9 e4 e12"/>
    </vehicle>
    <vehicle id="60" depart="3.00">
        <route edges="r4 r9 r1"/>
    </vehicle>
    <vehicle id="61" depart="3.05">
        <route edges="r4 r9 r1"/>
    </vehicle>
    <vehicle id="62" depart="3.10">
        <route edges="e1 r1 e7 e8 e5"/>
    </vehicle>
    <vehicle id="63" depart="3.15">
        <route edges="e1 e9 e10 r5 r8"/>
    </vehicle>
    <vehicle id="64" depart="3.20">
        <route edges="r7 e1 e9 e10 r5"/>
    </vehicle>
    <vehicle id="65" depart="3.25">
        <route edges="e5 r10 e10"/>
    </vehicle>
    <vehicle id="66" depart="3.30">
        <route edges="r7 e1 e9 e10 r5 r8"/>
    </vehicle>
    <vehicle id="67" depart="3.35">
        <route edges="e11 r11 r2 e9"/>
    </vehicle>
    <vehicle id="68" depart="3.40">
        <route edges="e10 e6 r12 r4"/>
    </vehicle>
    <vehicle id="69" depart="3.45">
        <route edges="r4 e4 e12"/>
    </vehicle>
    <vehicle id="70" depart="3.50">
        <route edges="e9 e10 r10"/>
    </vehicle>
    <vehicle id="71" depart="3.55">
        <route edges="e4 e12 r6"/>
    </vehicle>
    <vehicle id="72" depart="3.60">
        <route edges="e8 e5 r10 r3 e3"/>
    </vehicle>
    <vehicle id="73" depart="3.65">
        <route edges="r1 e7 e3 r3"/>
    </vehicle>
    <vehicle id="74" depart="3.70">
        <route edges="e2 e11 r4 r3 e8 e5"/>
    </vehicle>
    <vehicle id="75" depart="3.75">
        <route edges="r9 e9 e10 e6 r12"/>
    </vehicle>
    <vehicle id="76" depart="3.80">
        <route edges="e8 e5 r10 r9 r1"/>
    </vehicle>
    <vehicle id="77" depart="3.85">
        <route edges="e11 r4 r3 e3"/>
    </vehicle>
    <vehicle id="78" depart="3.90">
        <route edges="e6 r12 r11"/>
    </vehicle>
    <vehicle id="79" depart="3.95">
        <route edges="e3"/>
    </vehicle>
    <vehicle id="80" depart="4.00">
        <route edges="e10 e6 r12"/>
    </vehicle>
    <vehicle id="81" depart="4.05">
        <route edges="e3 r3 r7"/>
    </vehicle>
    <vehicle id="82" depart="4.10">
        <route edges="r6 r10 e10"/>
    </vehicle>
    <vehicle id="83" depart="4.15">
        <route edges="e3 e4 r11 r2"/>
    </vehicle>
    <vehicle id="84" depart="4.20">
        <route edges="e3 e4 e12"/>
    </vehicle>
    <vehicle id="85" depart="4.25">
        <route edges="r8 e8 e5 r10"/>
    </vehicle>
    <vehicle id="86" depart="4.30">
        <route edges="e9 e4 r4"/>
    </vehicle>
    <vehicle id="87" depart="4.35">
        <route edges="r5 r8 r7 e1 e2"/>
    </vehicle>
    <vehicle id="88" depart="4.40">
        <route edges="e11 r4 r3 e8"/>
    </vehicle>
    <vehicle id="89" depart="4.45">
        <route edges="e8 e5 r10 r9 e9"/>
    </vehicle>
    <vehicle id="90" depart="4.50">
        <route edges="r3 e3 e4 r11 r2"/>
    </vehicle>
    <vehicle id="91" depart="4.55">
        <route edges="r9 e2 e11"/>
    </vehicle>
    <vehicle id="92" depart="4.60">
        <route edges="e7 e8 e5 e6"/>
    </vehicle>
    <vehicle id="93" depart="4.65">
        <route edges="r6 r5 r8 e3"/>
    </vehicle>
    <vehicle id="94" depart="4.70">
        <route edges="e2 e11 r4 r3 e8"/>
    </vehicle>
    <vehicle id="95" depart="4.75">
        <route edges="e8 e5 r10 e4"/>
    </vehicle>
    <vehicle id="96" depart="4.80">
        <route edges="e3 e10 r5 r8"/>
    </vehicle>
    <vehicle id="97" depart="4.85">
        <route edges="e8 e5 e6 r12 e12 r6"/>
    </vehicle>
    <vehicle id="98" depart="4.90">
        <route edges="r10 e10"/>
    </vehicle>
    <vehicle id="99" depart="4.95">
        <route edges="r9 e2 e11 e12 r6"/>
    </vehicle>
    <vehicle id="100" depart="5.00">
        <route edges="r9 e9 e10 r5 r8"/>
    </vehicle>
    <vehicle id="101" depart="5.05">
        <route edges="r6 e6 r12 e12"/>
    </vehicle>
    <vehicle id="102" depart="5.10">
        <route edges="e9 r3 e3"/>
    </vehicle>
    <vehicle id="103" depart="5.15">
        <route edges="e7 e3 e10"/>
    </vehicle>
    <vehicle id="104" depart="5.20">
        <route edges="e7 e3 r9"/>
    </vehicle>
    <vehicle id="105" depart="5.25">
        <route edges="e4 r4"/>
    </vehicle>
    <vehicle id="106" depart="5.30">
        <route edges="e8"/>
    </vehicle>
    <vehicle id="107" depart="5.35">
        <route edges="r8 e3 r9"/>
    </vehicle>
    <vehicle id="108" depart="5.40">
        <route edges="r10 r3"/>
    </vehicle>
    <vehicle id="109" depart="5.45">
        <route edges="e12 r6 r5 r8 e8 e5"/>
    </vehicle>
    <vehicle id="110" depart="5.50">
        <route edges="r9 e9 e10 r10"/>
    </vehicle>
    <vehicle id="111" depart="5.55">
        <route edges="r10 r3"/>
    </vehicle>
    <vehicle id="112" depart="5.60">
        <route edges="e10 e6 r12 r11"/>
    </vehicle>
    <vehicle id="113" depart="5.65">
        <route edges="r1 e7 e3 e4 e12 r6"/>
    </vehicle>
    <vehicle id="114" depart="5.70">
        <route edges="e12 r6 r10 r9"/>
    </vehicle>
    <vehicle id="115" depart="5.75">
        <route edges="e10 r10 r9 e2"/>
    </vehicle>
    <vehicle id="116" depart="5.80">
        <route edges="r11 r2"/>
    </vehicle>
    <vehicle id="117" depart="5.85">
        <route edges="e3 r9 e2 e11"/>
    </vehicle>
    <vehicle id="118" depart="5.90">
        <route edges="r7 e1 r1 e7 e3"/>
    </vehicle>
    <vehicle id="119" depart="5.95">
        <route edges="r11"/>
    </vehicle>
    <vehicle id="120" depart="6.00">
        <route edges="e8 e5 e6 r12 r11"/>
    </vehicle>
    <vehicle id="121" depart="6.05">
        <route edges="r1 e7 e8 e5 r5 r8"/>
    </vehicle>
    <vehicle id="122" depart="6.10">
        <route edges="e2 e11 r4 r3"/>
    </vehicle>
    <vehicle id="123" depart="6.15">
        <route edges="e3 r9 r1 e7"/>
    </vehicle>
    <vehicle id="124" depart="6.20">
        <route edges="r2 r1 e7 e8 e5"/>
    </vehicle>
    <vehicle id="125" depart="6.25">
        <route edges="e5 e6 r12 r4"/>
    </vehicle>
    <vehicle id="126" depart="6.30">
        <route edges="e10 r10 r3 e8"/>
    </vehicle>
    <vehicle id="127" depart="6.35">
        <route edges="r9"/>
    </vehicle>
    <vehicle id="128" depart="6.40">
        <route edges="e10 r10 r3 e3"/>
    </vehicle>
    <vehicle id="129" depart="6.45">
        <route edges="e4 r4 e10 r5 r8"/>
    </vehicle>
    <vehicle id="130" depart="6.50">
        <route edges="r7"/>
    </vehicle>
    <vehicle id="131" depart="6.55">
        <route edges="e6 r12 e12"/>
    </vehicle>
    <vehicle id="132" depart="6.60">
        <route edges="r6 e6 r12 r11 r2"/>
    </vehicle>
    <vehicle id="133" depart="6.65">
        <route edges="r11 r2 e9 r9"/>
    </vehicle>
    <vehicle id="134" depart="6.70">
        <route edges="r12 r4 r3 r7 e1"/>
    </vehicle>
    <vehicle id="135" depart="6.75">
        <route edges="r5 r8 e8 e5"/>
    </vehicle>
    <vehicle id="136" depart="6.80">
        <route edges="r12 r4 e10 r5 r8"/>
    </vehicle>
    <vehicle id="137" depart="6.85">
        <route edges="e12 r6 r10 r9 e2 e11"/>
    </vehicle>
    <vehicle id="138" depart="6.90">
        <route edges="e11 r4 e10 r10"/>
    </vehicle>
    <vehicle id="139" depart="6.95">
        <route edges="e4 r11"/>
    </vehicle>
    <vehicle id="140" depart="7.00">
        <route edges="r3 e3 r9 e2"/>
    </vehicle>
    <vehicle id="141" depart="7.05">
        <route edges="r12 r4 e4"/>
    </vehicle>
    <vehicle id="142" depart="7.10">
        <route edges="e9 r3 r7"/>
    </vehicle>
    <vehicle id="143" depart="7.15">
        <route edges="r6 r10 r9 e2 e11"/>
    </vehicle>
    <vehicle id="144" depart="7.20">
        <route edges="e8 e5 r10 e4"/>
    </vehicle>
    <vehicle id="145" depart="7.25">
        <route edges="e1 e2 e11 r4"/>
    </vehicle>
    <vehicle id="146" depart="7.30">
        <route edges="r12 r4 e4"/>
    </vehicle>
    <vehicle id="147" depart="7.35">
        <route edges="r3 e8 e5 r10"/>
    </vehicle>
    <vehicle id="148" depart="7.40">
        <route edges="e8 e5 r10 r3 r7 e1"/>
    </vehicle>
    <vehicle id="149" depart="7.45">
        <route edges="e10 r5 r8 r7"/>
    </vehicle>
    <vehicle id="150" depart="7.50">
        <route edges="r7 e1 e9 e10 r10"/>
    </vehicle>
    <vehicle id="151" depart="7.55">
        <route edges="r6 r10"/>
    </vehicle>
    <vehicle id="152" depart="7.60">
        <route edges="e12"/>
    </vehicle>
    <vehicle id="153" depart="7.65">
        <route edges="e5 r10 r3 r7"/>
    </vehicle>
    <vehicle id="154" depart="7.70">
        <route edges="r5 r8 e3 e4 e12 r6"/>
    </vehicle>
    <vehicle id="155" depart="7.75">
        <route edges="r7 e1 r1 e7 e3"/>
    </vehicle>
    <vehicle id="156" depart="7.80">
        <route edges="e3 r9 e2 e11"/>
    </vehicle>
    <vehicle id="157" depart="7.85">
        <route edges="r4 r3 r7"/>
    </vehicle>
    <vehicle id="158" depart="7.90">
        <route edges="e7 e3 e4 r11"/>
    </vehicle>
    <vehicle id="159" depart="7.95">
        <route edges="e12 r6 r5 r8"/>
    </vehicle>
    <vehicle id="160" depart="8.00">
        <route edges="r6 r10 r9"/>
    </vehicle>
    <vehicle id="161" depart="8.05">
        <route edges="r5 r8 r7"/>
    </vehicle>
    <vehicle id="162" depart="8.10">
        <route edges="e1 e9 r3"/>
    </vehicle>
    <vehicle id="163" depart="8.15">
        <route edges="e5 r5 r8"/>
    </vehicle>
    <vehicle id="164" depart="8.20">
        <route edges="r5 r8 e3 e4 e12 r6"/>
    </vehicle>
    <vehicle id="165" depart="8.25">
        <route edges="r5 r8 e3 e4"/>
    </vehicle>
    <vehicle id="166" depart="8.30">
        <route edges="r4 r9 e2 e11"/>
    </vehicle>
    <vehicle id="167" depart="8.35">
        <route edges="r6"/>
    </vehicle>
    <vehicle id="168" depart="8.40">
        <route edges="e3 e10 r5"/>
    </vehicle>
    <vehicle id="169" depart="8.45">
        <route edges="e9 r3 e8 e5"/>
    </vehicle>
    <vehicle id="170" depart="8.50">
        <route edges="r5 r8 e3"/>
    </vehicle>
    <vehicle id="171" depart="8.55">
        <route edges="e1 e2"/>
    </vehicle>
    <vehicle id="172" depart="8.60">
        <route edges="e5 e6 r12 e12 r6"/>
    </vehicle>
    <vehicle id="173" depart="8.65">
        <route edges="r9 e9 e4"/>
    </vehicle>
    <vehicle id="174" depart="8.70">
        <route edges="r12 r11 r2 r1 e7"/>
    </vehicle>
    <vehicle id="175" depart="8.75">
        <route edges="r9 r1"/>
    </vehicle>
    <vehicle id="176" depart="8.80">
        <route edges="r8 r7 e1 e2 e11"/>
    </vehicle>
    <vehicle id="177" depart="8.85">
        <route edges="r9 e2"/>
    </vehicle>
    <vehicle id="178" depart="8.90">
        <route edges="r9 e9 e4"/>
    </vehicle>
    <vehicle id="179" depart="8.95">
        <route edges="e11 r4 r3 e8"/>
    </vehicle>
    <vehicle id="180" depart="9.00">
        <route edges="r3 e8 e5"/>
    </vehicle>
    <vehicle id="181" depart="9.05">
        <route edges="r11 r2 r1"/>
    </vehicle>
    <vehicle id="182" depart="9.10">
        <route edges="e7 e8 e5 r10"/>
    </vehicle>
    <vehicle id="183" depart="9.15">
        <route edges="e4 r4 r3"/>
    </vehicle>
    <vehicle id="184" depart="9.20">
        <route edges="e1 e9 e10 r5 r8"/>
    </vehicle>
    <vehicle id="185" depart="9.25">
        <route edges="r1 e7 e3 r3"/>
    </vehicle>
    <vehicle id="186" depart="9.30">
        <route edges="r3 e3 e4 r11 r2"/>
    </vehicle>
    <vehicle id="187" depart="9.35">
        <route edges="e6 r12 r4 e10"/>
    </vehicle>
    <vehicle id="188" depart="9.40">
        <route edges="r12 r4 r3 e8 e5"/>
    </vehicle>
    <vehicle id="189" depart="9.45">
        <route edges="e5 e6 r12 e12 r6"/>
    </vehicle>
    <vehicle id="190" depart="9.50">
        <route edges="r3 e8 e5"/>
    </vehicle>
    <vehicle id="191" depart="9.55">
        <route edges="e5 r10 r9 r1 e7"/>
    </vehicle>
    <vehicle id="192" depart="9.60">
        <route edges="e7 e8 e5"/>
    </vehicle>
    <vehicle id="193" depart="9.65">
        <route edges="e12 r6 r5 r8 e8"/>
    </vehicle>
    <vehicle id="194" depart="9.70">
        <route edges="r8 e3 e4 r11 r2"/>
    </vehicle>
    <vehicle id="195" depart="9.75">
        <route edges="r7 e1 e2 e11 r11"/>
    </vehicle>
    <vehicle id="196" depart="9.80">
        <route edges="e5 r10"/>
    </vehicle>
    <vehicle id="197" depart="9.85">
        <route edges="e1 e9 e4"/>
    </vehicle>
    <vehicle id="198" depart="9.90">
        <route edges="e8 e5 r10"/>
    </vehicle>
    <vehicle id="199" depart="9.95">
        <route edges="r12 r11 r2 e9"/>
    </vehicle>
</routes>
