<nodes>
    <node id="1" x="0.0" y="0.0" type="priority"/>
    <node id="2" x="0.0" y="-500.0" type="priority"/>
    <node id="3" x="0.0" y="-1000.0" type="priority"/>

    <node id="4" x="1000.0" y="0.0" type="priority"/>
    <node id="5" x="1000.0" y="-500.0" type="priority"/>
    <node id="6" x="1000.0" y="-1000.0" type="priority"/>

    <node id="7" x="2000.0" y="0.0" type="priority"/>
    <node id="8" x="2000.0" y="-500.0" type="priority"/>
    <node id="9" x="2000.0" y="-1000.0" type="priority"/>
</nodes>