<configuration>
  <input>
    <net-file value="highway.net.xml"/>
    <route-files value="highway.rou.xml"/>
  </input>
  <time>
    <begin value="0"/>
    <end value="20"/>
    <step-length value="0.1"/>
  </time>
</configuration>
